%nprocshared=16
%mem=32GB
#p opt b3lyp/cc-pvdz
geom=connectivity freq=noraman

Title: b3lyp-cc-pvdz
 
0 1
 C                 -1.32625561   -0.02976177   -0.21588394
 H                 -0.90911260   -0.95026497    0.13563503
 H                 -0.90697402    0.78552820    0.33584535
 H                 -1.10145742    0.08983198   -1.25514479
 C                 -2.85362296   -0.05045897   -0.02012750
 C                 -3.52422815    1.10634111    0.20048368
 H                 -4.58545099    1.09196065    0.33649570
 C                 -3.61893898   -1.38570173   -0.07506559
 H                 -3.11079568   -2.06132587   -0.73097901
 H                 -3.66724475   -1.80974650    0.90613398
 H                 -4.61052203   -1.21376641   -0.43852299
 C                 -2.75891203    2.44158377    0.25542257
 H                 -2.45272129    2.63602773    1.26206987
 H                 -1.89627138    2.38444880   -0.37504290
 O                 -3.61034442    3.49794555   -0.19631041
 H                 -3.13326424    4.33030461   -0.16206278

 1 2 1.0 3 1.0 4 1.0 5 1.0
 2
 3
 4
 5 6 2.0 8 1.0
 6 7 1.0 12 1.0
 7
 8 9 1.0 10 1.0 11 1.0
 9
 10
 11
 12 13 1.0 14 1.0 15 1.0
 13
 14
 15 16 1.0
 16
 
 

