%nprocshared=16
%mem=32GB
#p opt LEVEL_THEORY
geom=connectivity freq=noraman

Title LEVEL_THEORY

1 1
 C                 -1.23543468   -0.05141728   -0.31929875
 H                 -1.48930207   -0.93253414    0.23213976
 H                 -0.72163726    0.63456901    0.32127522
 H                 -0.60240722   -0.31478915   -1.14076785
 C                 -2.52062587    0.60848342   -0.85260419
 C                 -3.43391270    1.35246949   -0.10241439
 H                 -4.47259774    1.10811512   -0.18194006
 C                 -3.10559939   -0.52532267   -1.71509461
 H                 -2.40581996   -0.78851830   -2.48055969
 H                 -3.29830594   -1.37883176   -1.09923227
 H                 -4.01911493   -0.19639231   -2.16475468
 C                 -3.21513288    1.60427809    1.40102428
 H                 -3.48498728    0.72789675    1.95241738
 H                 -2.18517091    1.83395642    1.57801640
 O                 -4.02782489    2.70238568    1.82362505
 H                 -3.89144266    2.85935727    2.76083357
 Br                -2.57749499    2.43247852   -1.49409023

 1 2 1.0 3 1.0 4 1.0 5 1.0
 2
 3
 4
 5 6 2.0 8 1.0 17 1.0
 6 7 1.0 12 1.0 17 1.0
 7
 8 9 1.0 10 1.0 11 1.0
 9
 10
 11
 12 13 1.0 14 1.0 15 1.0
 13
 14
 15 16 1.0
 16
 17

