%mem=32GB
%nprocshared=16
#p geom=connect m062x/6-31g(d) scrf=(pcm,solvent=toluene) pop=none opt=modredundant

title

0 1
Ti   0.955048  -1.434160  -0.591242
C    3.416600  -2.773793  -1.215946
C    3.672009  -2.508262   0.269803
O    2.044040  -2.587803  -1.450910
N    2.859493  -1.342201   0.569989
C    3.335424  -0.326789   1.185753
C    2.576497   0.882340   1.452325
C    1.178672   0.926242   1.229720
C    3.236707   2.019368   1.945555
C    0.485967   2.121825   1.502751
C    2.549137   3.194936   2.191795
C    1.165064   3.235523   1.966494
O    0.516397  -0.112361   0.772564
Cl  -0.172560  -2.710333   0.761711
O   -0.580838  -1.629460  -1.535106
C   -1.893967  -1.760776  -1.133117
C   -2.132240  -1.094950   0.204760
C   -3.423948  -1.055685   0.876253
C   -3.431792  -0.923060   2.373192
C   -4.632136  -1.683059   0.240581
C    0.945374   1.248707  -1.694537
C   -0.681779   2.694993  -1.538927
N   -0.355925   1.350180  -1.559662
Br  -2.971551   0.790744   0.004438
O   -1.800492   3.123352  -1.300264
O    1.606558   0.150351  -1.627834
C    0.544819   3.578662  -1.801709
C    1.683546   2.565861  -1.870139
H    4.376742  -0.341569   1.530293
H    4.308974   1.965731   2.121084
H    0.615044   4.153281   2.155481
H   -2.149204  -2.823256  -0.990397
H   -2.567240  -1.345646  -1.892107
H   -1.277673  -0.853395   0.820481
H   -2.546336  -0.399030   2.738035
H   -3.426632  -1.937304   2.790063
H   -4.334533  -0.412134   2.714289
H   -4.648073  -2.737999   0.541220
H   -4.609676  -1.632005  -0.848725
H   -5.546836  -1.212141   0.605899
H    0.394672   4.139848  -2.727881
H    0.647435   4.297916  -0.985237
H    2.408321   2.669068  -1.054588
H    2.237706   2.565622  -2.812697
H    3.287346  -3.347711   0.860094
H    3.707369  -3.792097  -1.494406
H    3.071607   4.071635   2.558445
H   -0.582458   2.132145   1.303615
H    4.733651  -2.356612   0.499652
H    3.990041  -2.065030  -1.828547

1 4 1.0 13 1.0 15 1.0 26 1.0 
2 3 1.0 4 1.0 46 1.0 50 1.0 
3 5 1.0 45 1.0 49 1.0 
4 
5 6 1.0 
6 7 1.0 29 1.0 
7 8 1.0 9 1.0 
8 10 1.0 13 1.0 
9 11 1.0 30 1.0 
10 12 1.0 48 1.0 
11 12 1.0 47 1.0 
12 31 1.0 
13 
14 17 1.0 
15 16 1.0 
16 17 1.0 32 1.0 33 1.0 
17 18 1.0 24 1.0 34 1.0 
18 19 1.0 20 1.0 24 1.0 
19 35 1.0 36 1.0 37 1.0 
20 38 1.0 39 1.0 40 1.0 
21 23 1.0 26 1.0 28 1.0 
22 23 1.0 25 1.0 27 1.0 
23 
24 
25 
26 
27 28 1.0 41 1.0 42 1.0 
28 43 1.0 44 1.0 
29 
30 
31 
32 
33 
34 
35 
36 
37 
38 
39 
40 
41 
42 
43 
44 
45 
46 
47 
48 
49 
50 

B 17 14 F
B 18 14 F


